FoamFile
{
    version     2.0;
    format      ascii;
    class       volVectorField;
    location    "0";
    object      U;
}

dimensions      [0 1 -1 0 0 0 0];
internalField   uniform (__U_MEAN__ 0 0);

boundaryField
{
    inlet
    {
        type fixedValue;
        value uniform (__U_MEAN__ 0 0);
    }

    outlet
    {
        type zeroGradient;
    }

    walls
    {
        type noSlip;
    }

    frontAndBack
    {
        type empty;
    }
}
