/*--------------------------------*- C++ -*----------------------------------*\
| =========                 |                                                 |
| \\      /  F ield         | OpenFOAM: The Open Source CFD Toolbox           |
|  \\    /   O peration     | Version:  any                                    |
|   \\  /    A nd           | Web:      www.OpenFOAM.com                       |
|    \\/     M anipulation  |                                                 |
\*---------------------------------------------------------------------------*/
FoamFile
{
    version     2.0;
    format      ascii;
    class       dictionary;
    object      controlDict;
}

application     pimpleFoam;
startFrom       startTime;
startTime       0;
stopAt          endTime;
endTime         __END_TIME__;
deltaT          __DELTA_T__;
writeControl    adjustableRunTime;
writeInterval   __WRITE_INTERVAL__;
purgeWrite      0;
writeFormat     ascii;
writePrecision  8;
writeCompression off;
timeFormat      general;
timePrecision   6;
runTimeModifiable true;

functions
{
    probes
    {
        type            probes;
        libs            ("libsampling.so");
        writeControl    timeStep;
        writeInterval   1;
        fields          (U);
        probeLocations
        (
__PROBE_POINTS__
        );
    }
}
